/prep7

ET,1,188

KEYOPT,1,3,2

MP,EX,,2E11
MP,PRXY,1,0.2

K,1,0,0,0
K,2,0,5,0
K,3,-0.5,0,0
K,4,-0.5,5,0

L,1,2


SECTYPE,1,BEAM,rect,S1
SECDATA,0.2,0.4

SECTYPE,2,BEAM,I,S2
SECDATA,0.101,0.101,0.305,0.0067,0.0067,0.0056

LSEL,S,LINE,,1
LATT,1,,,,3,4,1

DK,1,UX,0,,,UY,UZ
DK,2,UX,0,,,UZ,ROTX,ROTY

LeSIZE, ALL,,,50
LMESH,ALL

FK,2,FY,-1000

ALLSEL



/solu

ANTYPE,0
PSTRES,ON
SOLVE

/post1

SET,,1
PLDISP
PLNSOL,S,EQV

/solu
ANTYPE,BUCKLE
BUCOPT,LANB,10,0,0,RANGE
MXPAND,10,0,0,1,0.001
SOLVE

/post1

SET,,1
PLDISP
SET,,2
PLDISP
